
#======================================================================
# CRYSTAL DATA
#----------------------------------------------------------------------
data_VESTA_phase_1

_chemical_name_common                  'image0'
_cell_length_a                         11.080009
_cell_length_b                         7.492251
_cell_length_c                         8.893780
_cell_angle_alpha                      84.605377
_cell_angle_beta                       103.489212
_cell_angle_gamma                      126.940308
_cell_volume                           572.811136
_space_group_name_H-M_alt              'P 1'
_space_group_IT_number                 1

loop_
_space_group_symop_operation_xyz
   'x, y, z'

loop_
   _atom_site_label
   _atom_site_occupancy
   _atom_site_fract_x
   _atom_site_fract_y
   _atom_site_fract_z
   _atom_site_adp_type
   _atom_site_B_iso_or_equiv
   _atom_site_type_symbol
   Cu1        1.0     0.755590     0.285460     0.674050    Biso  1.000000 Cu
   Cu1        1.0     0.088923     0.952127     0.007383    Biso  1.000000 Cu
   Cu1        1.0     0.422257     0.618793     0.340717    Biso  1.000000 Cu
   Cu2        1.0     0.050750     0.827220     0.632290    Biso  1.000000 Cu
   Cu2        1.0     0.384083     0.493887     0.965623    Biso  1.000000 Cu
   Cu2        1.0     0.717417     0.160553     0.298957    Biso  1.000000 Cu
   Cu3        1.0     0.244410     0.714540     0.325950    Biso  1.000000 Cu
   Cu3        1.0     0.577743     0.381207     0.659283    Biso  1.000000 Cu
   Cu3        1.0     0.911077     0.047873     0.992617    Biso  1.000000 Cu
   Cu4        1.0     0.949250     0.172780     0.367710    Biso  1.000000 Cu
   Cu4        1.0     0.282583     0.839447     0.701043    Biso  1.000000 Cu
   Cu4        1.0     0.615917     0.506113     0.034377    Biso  1.000000 Cu
   P1         1.0     0.287453     0.248217     0.367853    Biso  1.000000 P
   P1         1.0     0.620787     0.914883     0.701187    Biso  1.000000 P
   P1         1.0     0.954120     0.581550     0.034520    Biso  1.000000 P
   P2         1.0     0.956593     0.739877     0.376193    Biso  1.000000 P
   P2         1.0     0.289927     0.406543     0.709527    Biso  1.000000 P
   P2         1.0     0.623260     0.073210     0.042860    Biso  1.000000 P
   P3         1.0     0.712547     0.751783     0.632147    Biso  1.000000 P
   P3         1.0     0.045880     0.418450     0.965480    Biso  1.000000 P
   P3         1.0     0.379213     0.085117     0.298813    Biso  1.000000 P
   P4         1.0     0.043407     0.260123     0.623807    Biso  1.000000 P
   P4         1.0     0.376740     0.926790     0.957140    Biso  1.000000 P
   P4         1.0     0.710073     0.593457     0.290473    Biso  1.000000 P
   P5         1.0     0.688700     0.831220     0.388420    Biso  1.000000 P
   P5         1.0     0.022033     0.497887     0.721753    Biso  1.000000 P
   P5         1.0     0.355367     0.164553     0.055087    Biso  1.000000 P
   P6         1.0     0.957727     0.961633     0.758007    Biso  1.000000 P
   P6         1.0     0.291060     0.628300     0.091340    Biso  1.000000 P
   P6         1.0     0.624393     0.294967     0.424673    Biso  1.000000 P
   P7         1.0     0.311300     0.168780     0.611580    Biso  1.000000 P
   P7         1.0     0.644633     0.835447     0.944913    Biso  1.000000 P
   P7         1.0     0.977967     0.502113     0.278247    Biso  1.000000 P
   P8         1.0     0.042273     0.038367     0.241993    Biso  1.000000 P
   P8         1.0     0.375607     0.705033     0.575327    Biso  1.000000 P
   P8         1.0     0.708940     0.371700     0.908660    Biso  1.000000 P
